ipss.test.plugin.core/testData/adpter/psse/v30/Bus200/200busV29-peak.raw
 0    100.00     / RAW29 (REV 30)  THU, JUL 31 2008  13:42
                               100.0                        
                                                            
    2,'BUS002  ', 500.0000,1,     0.000,     0.000,   1,   1,0.99196, -29.9272,   1
    3,'BUS003  ', 345.0000,1,     0.000,     0.000,   1,   1,0.99205, -20.9651,   1
    4,'BUS004  ',  20.0000,2,     0.000,     0.000,   1,   1,1.05000, -23.5555,   1
    5,'BUS005  ', 345.0000,1,     0.000,     0.000,   1,   1,1.05629,  -0.0658,   1
    6,'BUS006  ',  22.0000,2,     0.000,     0.000,   1,   1,1.05500,   5.9796,   1
    7,'BUS007  ', 500.0000,1,     0.000, -1000.000,   1,   1,1.03449, -11.4842,   1
    8,'BUS008  ', 345.0000,1,     0.000,   -80.000,   1,   1,1.02422,  -9.0648,   1
    9,'BUS009  ',  22.0000,2,     0.000,     0.000,   1,   1,1.05000,  -2.5757,   1
   10,'BUS010  ', 230.0000,1,     0.000,     0.000,   1,   1,1.02237,  -9.5923,   1
   11,'BUS011  ',  20.0000,2,     0.000,     0.000,   1,   1,1.02000,  15.6867,   1
   12,'BUS012  ', 500.0000,1,     0.000,  -190.000,   1,   1,1.06204, -23.2894,   1
   13,'BUS013  ',  26.0000,2,     0.000,     0.000,   1,   1,1.00000, -17.1076,   1
   14,'BUS014  ', 500.0000,1,     0.000,  -391.000,   1,   1,1.05384, -24.6002,   1
   15,'BUS015  ',  24.0000,2,     0.000,     0.000,   1,   1,1.00000, -21.7263,   1
   16,'BUS016  ', 500.0000,1,     0.000,  -700.000,   1,   1,1.04597, -29.3215,   1
   17,'BUS017  ', 345.0000,1,     0.000,   390.000,   1,   1,1.06171,  -9.0615,   1
   18,'BUS018  ',  22.0000,2,     0.000,     0.000,   1,   1,1.03000,  -6.2327,   1
   19,'BUS019  ', 500.0000,1,     0.000,  -427.000,   1,   1,1.04443, -29.2602,   1
   20,'BUS020  ', 500.0000,1,     0.000,     0.000,   1,   1,1.06350, -21.7382,   1
   21,'BUS021  ', 500.0000,1,     0.000,     0.000,   1,   1,1.04449, -26.1864,   1
   22,'BUS022  ', 500.0000,1,     0.000,     0.000,   1,   1,1.03779, -21.3773,   1
   23,'BUS023  ', 500.0000,1,     0.000,     0.000,   1,   1,1.01432, -31.2353,   1
   24,'BUS024  ', 500.0000,1,     0.000,     0.000,   1,   1,1.04176, -23.1582,   1
   25,'BUS025  ', 500.0000,1,     0.000,     0.000,   1,   1,1.03032, -30.7231,   1
   26,'BUS026  ', 500.0000,1,     0.000,     0.000,   1,   1,1.04614, -16.1612,   1
   27,'BUS027  ', 500.0000,1,     0.000,     0.000,   1,   1,1.00836, -40.9363,   1
   28,'BUS028  ', 500.0000,1,     0.000,     0.000,   1,   1,1.02771,  -9.8018,   1
   29,'BUS029  ', 500.0000,1,     0.000,     0.000,   1,   1,1.05461, -26.9836,   1
   30,'BUS030  ',  20.0000,2,     0.000,     0.000,   1,   1,1.00000,  37.8240,   1
   31,'BUS031  ', 500.0000,1,     0.000,     0.000,   1,   1,1.03572,  34.0311,   1
   32,'BUS032  ', 500.0000,1,     0.000,     0.000,   1,   1,1.07831,  62.3464,   1
   33,'BUS033  ', 230.0000,1,     0.000,     0.000,   1,   1,0.97835,  66.9375,   1
   34,'BUS034  ', 230.0000,1,     0.000,     0.000,   1,   1,1.00112,  75.9874,   1
   35,'BUS035  ',  20.0000,2,     0.000,     0.000,   1,   1,1.02000,  80.9086,   1
   36,'BUS036  ',  22.0000,2,     0.000,     0.000,   1,   1,1.05000,   0.5535,   1
   37,'BUS037  ', 500.0000,1,     0.000,   200.000,   1,   1,1.02563, -41.5985,   1
   38,'BUS038  ', 500.0000,1,     0.000,     0.000,   1,   1,1.06882, -45.9235,   1
   39,'BUS039  ', 230.0000,1,     0.000,     0.000,   1,   1,1.03935, -47.0673,   1
   40,'BUS040  ',  18.0000,2,     0.000,     0.000,   1,   1,1.05000, -45.8297,   1
   41,'BUS041  ', 230.0000,1,     0.000,     0.000,   1,   1,1.02137, -50.6989,   1
   42,'BUS042  ', 230.0000,1,     0.000,     0.000,   1,   1,1.04536, -50.5145,   1
   43,'BUS043  ',  18.0000,2,     0.000,     0.000,   1,   1,1.05000, -47.4602,   1
   44,'BUS044  ', 345.0000,1,     0.000,   430.000,   1,   1,1.05682, -10.3813,   1
   45,'BUS045  ',  26.0000,2,     0.000,     0.000,   1,   1,1.05000,  -5.7528,   1
   46,'BUS046  ', 230.0000,1,     0.000,     0.000,   1,   1,1.03341, -47.3695,   1
   47,'BUS047  ',  11.5000,2,     0.000,     0.000,   1,   1,1.05000, -47.1043,   1
   48,'BUS048  ', 230.0000,1,     0.000,     0.000,   1,   1,1.03155, -47.5755,   1
   49,'BUS049  ', 500.0000,1,     0.000,   -80.000,   1,   1,1.05700, -45.1442,   1
   50,'BUS050  ', 230.0000,1,     0.000,     0.000,   1,   1,1.02612, -51.6478,   1
   51,'BUS051  ', 138.0000,1,     0.000,     0.000,   1,   1,1.02959, -51.7031,   1
   52,'BUS052  ', 287.0000,1,     0.000,     0.000,   1,   1,1.03062, -50.5107,   1
   53,'BUS053  ', 287.0000,1,     0.000,     0.000,   1,   1,1.03062, -50.5107,   1
   54,'BUS054  ', 230.0000,1,     0.000,     0.000,   1,   1,1.02702, -51.9079,   1
   55,'BUS055  ', 230.0000,1,     0.000,     0.000,   1,   1,1.02082, -49.8137,   1
   56,'BUS056  ', 500.0000,1,     0.000,     0.000,   1,   1,1.02946, -47.3896,   1
   57,'BUS057  ', 230.0000,1,     0.000,     0.000,   1,   1,1.02667, -51.6812,   1
   58,'BUS058  ', 230.0000,1,     0.000,     0.000,   1,   1,1.02368, -50.9617,   1
   59,'BUS059  ', 230.0000,1,     0.000,     0.000,   1,   1,1.02912, -48.6585,   1
   60,'BUS060  ', 230.0000,1,     0.000,  2146.000,   1,   1,1.03784, -46.8898,   1
   61,'BUS061  ', 230.0000,1,     0.000,     0.000,   1,   1,1.02179, -47.9940,   1
   62,'BUS062  ', 230.0000,1,     0.000,     0.000,   1,   1,1.02614, -48.7761,   1
   63,'BUS063  ', 287.0000,1,     0.000,  -108.000,   1,   1,1.03043, -44.0411,   1
   64,'BUS064  ', 500.0000,1,     0.000,     0.000,   1,   1,1.02837, -41.9395,   1
   65,'BUS065  ',  20.0000,2,     0.000,     0.000,   1,   1,1.00000,  68.9916,   1
   66,'BUS066  ', 500.0000,1,     0.000,     0.000,   1,   1,1.04495,  60.5944,   1
   67,'BUS067  ', 115.0000,1,     0.000,     0.000,   1,   1,1.02828, -10.8452,   1
   68,'BUS068  ', 230.0000,1,     0.000,   576.850,   1,   1,1.02658,  -8.2957,   1
   69,'BUS069  ', 500.0000,1,     0.000,     0.000,   1,   1,1.05332,  -7.4927,   1
   70,'BUS070  ',  13.8000,2,     0.000,     0.000,   1,   1,1.00000,  -2.3783,   1
   71,'BUS071  ', 230.0000,1,     0.000,   500.000,   1,   1,1.02280,  -8.6936,   1
   72,'BUS072  ', 500.0000,1,     0.000,   400.000,   1,   1,1.05341,  -7.5823,   1
   73,'BUS073  ', 500.0000,1,     0.000,     0.000,   1,   1,1.05367,  26.3470,   1
   74,'BUS074  ', 500.0000,1,     0.000,     0.000,   1,   1,0.98636,  46.9212,   1
   75,'BUS075  ', 500.0000,1,     0.000,     0.000,   1,   1,1.02010,  13.0313,   1
   76,'BUS076  ', 500.0000,1,     0.000,  1019.300,   1,   1,1.05373,  -5.8254,   1
   77,'BUS077  ',  13.8000,3,     0.000,     0.000,   1,   1,1.00000,   0.0000,   1
   78,'BUS078  ', 500.0000,1,     0.000,  1000.000,   1,   1,1.00917,  10.4025,   1
   79,'BUS079  ',  20.0000,2,     0.000,     0.000,   1,   1,1.02000,  39.4433,   1
   80,'BUS080  ', 500.0000,1,     0.000,  1000.000,   1,   1,1.04056,  25.1241,   1
   81,'BUS081  ', 500.0000,1,     0.000,   -20.000,   1,   1,1.03972, -17.0021,   1
   82,'BUS082  ', 500.0000,1,     0.000,  -650.000,   1,   1,1.05674, -13.8256,   1
   83,'BUS083  ', 500.0000,1,     0.000,  -110.000,   1,   1,1.05067, -21.1614,   1
   84,'BUS084  ', 500.0000,1,     0.000,  -700.000,   1,   1,1.06955,  -5.8160,   1
   85,'BUS085  ', 345.0000,1,     0.000,  -500.000,   1,   1,1.04672,  -3.1421,   1
   86,'BUS086  ', 500.0000,1,     0.000,     0.000,   1,   1,1.05862, -15.7538,   1
   87,'BUS087  ', 500.0000,1,     0.000,     0.000,   1,   1,1.07328, -16.4628,   1
   88,'BUS088  ', 500.0000,1,     0.000,     0.000,   1,   1,1.04659, -12.0027,   1
   89,'BUS089  ', 500.0000,1,     0.000,     0.000,   1,   1,1.05449, -11.4253,   1
   90,'BUS090  ', 500.0000,1,     0.000,     0.000,   1,   1,1.06005, -17.4154,   1
   91,'BUS091  ', 500.0000,1,     0.000,     0.000,   1,   1,1.07510, -19.2996,   1
   92,'BUS092  ', 500.0000,1,     0.000,     0.000,   1,   1,1.05798, -13.9253,   1
   93,'BUS093  ', 500.0000,1,     0.000,     0.000,   1,   1,1.06406, -20.0839,   1
   94,'BUS094  ', 500.0000,1,     0.000,     0.000,   1,   1,1.06008, -14.6948,   1
   95,'BUS095  ', 500.0000,1,     0.000,     0.000,   1,   1,1.07487, -19.6024,   1
   96,'BUS096  ', 500.0000,1,     0.000,     0.000,   1,   1,1.05768, -13.9265,   1
   97,'BUS097  ', 500.0000,1,     0.000,     0.000,   1,   1,1.06361, -20.4301,   1
   98,'BUS098  ', 500.0000,1,     0.000,     0.000,   1,   1,1.05939, -14.7371,   1
   99,'BUS099  ', 500.0000,1,     0.000,     0.000,   1,   1,0.98026,   4.3053,   1
  100,'BUS100  ', 200.0000,1,     0.000,     0.000,   1,   1,1.05716, -39.4965,   1
  101,'BUS101  ', 200.0000,1,     0.000,   200.000,   1,   1,1.02070, -43.2255,   1
  102,'BUS102  ', 500.0000,1,     0.000,     0.000,   1,   1,1.04633, -42.7469,   1
  103,'BUS103  ',  25.0000,2,     0.000,     0.000,   1,   1,1.00000, -34.7364,   1
  104,'BUS104  ', 500.0000,1,     0.000,   -91.000,   1,   1,1.03409, -46.4366,   1
  105,'BUS105  ', 200.0000,1,     0.000,     0.000,   1,   1,1.04674, -43.0796,   1
  106,'BUS106  ', 200.0000,1,     0.000,     0.000,   1,   1,1.05370, -42.0519,   1
  107,'BUS107  ', 500.0000,1,     0.000,     0.000,   1,   1,1.03208, -48.8503,   1
  108,'BUS108  ', 500.0000,1,     0.000,  -427.000,   1,   1,1.03893, -48.2642,   1
  109,'BUS109  ', 200.0000,1,     0.000,  -330.000,   1,   1,1.10058, -55.2832,   1
  110,'BUS110  ', 500.0000,1,     0.000,     0.000,   1,   1,1.02915, -49.1241,   1
  111,'BUS111  ', 500.0000,1,     0.000,     0.000,   1,   1,1.04661, -28.5874,   1
  112,'BUS112  ',  20.0000,2,     0.000,     0.000,   1,   1,1.00000, -20.1325,   1
  113,'BUS113  ', 200.0000,1,     0.000,   -50.000,   1,   1,1.08291, -30.3955,   1
  114,'BUS114  ', 500.0000,1,     0.000,   -91.000,   1,   1,1.03076, -26.6344,   1
  115,'BUS115  ', 500.0000,1,     0.000,   -91.000,   1,   1,1.02021, -30.2541,   1
  116,'BUS116  ',  20.0000,2,     0.000,     0.000,   1,   1,1.00000, -35.2615,   1
  117,'BUS117  ', 200.0000,1,     0.000,  -400.000,   1,   1,1.07599, -39.6061,   1
  118,'BUS118  ',  20.0000,2,     0.000,     0.000,   1,   1,1.03000, -28.2762,   1
  119,'BUS119  ', 500.0000,1,     0.000,  1700.000,   1,   1,1.01718, -36.0976,   1
  120,'BUS120  ', 500.0000,1,     0.000,     0.000,   1,   1,1.05009, -21.9110,   1
  121,'BUS121  ', 500.0000,1,     0.000,     0.000,   1,   1,1.02892, -35.1701,   1
  122,'BUS122  ', 500.0000,1,     0.000,     0.000,   1,   1,1.03735, -28.3571,   1
  123,'BUS123  ', 500.0000,1,     0.000,     0.000,   1,   1,1.00555, -43.1366,   1
  124,'BUS124  ', 500.0000,1,     0.000,     0.000,   1,   1,1.02251, -21.4863,   1
  125,'BUS125  ', 500.0000,1,     0.000,     0.000,   1,   1,1.02413, -33.6728,   1
  126,'BUS126  ', 500.0000,1,     0.000,     0.000,   1,   1,1.02251, -21.4863,   1
  127,'BUS127  ', 500.0000,1,     0.000,     0.000,   1,   1,1.02413, -33.6728,   1
  128,'BUS128  ', 500.0000,1,     0.000,     0.000,   1,   1,1.00684, -24.9101,   1
  129,'BUS129  ', 500.0000,1,     0.000,     0.000,   1,   1,1.02264, -41.3056,   1
  130,'BUS130  ', 500.0000,1,     0.000,     0.000,   1,   1,1.01464, -26.1962,   1
  131,'BUS131  ', 500.0000,1,     0.000,     0.000,   1,   1,1.02036, -38.1004,   1
  132,'BUS132  ', 500.0000,1,     0.000,     0.000,   1,   1,1.00841, -33.5978,   1
  133,'BUS133  ', 500.0000,1,     0.000,     0.000,   1,   1,1.04157, -52.4041,   1
  134,'BUS134  ', 500.0000,1,     0.000,     0.000,   1,   1,1.00627, -31.5989,   1
  135,'BUS135  ', 500.0000,1,     0.000,     0.000,   1,   1,1.04086, -51.1926,   1
  136,'BUS136  ', 500.0000,1,     0.000,     0.000,   1,   1,1.03075, -43.2566,   1
  137,'BUS137  ', 230.0000,1,     0.000,     0.000,   1,   1,1.01985, -52.4698,   1
  138,'BUS138  ',  20.0000,2,     0.000,     0.000,   1,   1,1.02000, -24.8465,   1
  139,'BUS139  ', 500.0000,1,     0.000,  -800.000,   1,   1,1.02850, -32.1262,   1
  140,'BUS140  ',  20.0000,2,     0.000,     0.000,   1,   1,1.05000, -49.6555,   1
  141,'BUS141  ', 230.0000,1,     0.000,     0.000,   1,   1,1.04081, -55.4620,   1
  142,'BUS142  ', 500.0000,1,     0.000,     0.000,   1,   1,1.04070, -45.7456,   1
  143,'BUS143  ', 230.0000,1,     0.000,     0.000,   1,   1,1.02614, -54.7316,   1
  144,'BUS144  ',  20.0000,2,     0.000,     0.000,   1,   1,1.05000, -45.1744,   1
  145,'BUS145  ', 500.0000,1,     0.000,   600.000,   1,   1,1.03664, -49.4292,   1
  146,'BUS146  ', 230.0000,1,     0.000,     0.000,   1,   1,1.03596, -49.8754,   1
  147,'BUS147  ', 500.0000,1,     0.000,  -196.000,   1,   1,1.05890, -28.3926,   1
  148,'BUS148  ',  22.0000,2,     0.000,     0.000,   1,   1,1.05000, -19.9842,   1
  149,'BUS149  ',  20.0000,2,     0.000,     0.000,   1,   1,1.02000, -39.5269,   1
  150,'BUS150  ', 230.0000,1,     0.000,     0.000,   1,   1,1.01301, -51.4052,   1
  151,'BUS151  ', 500.0000,1,     0.000,     0.000,   1,   1,1.03468, -49.8359,   1
  152,'BUS152  ', 500.0000,1,     0.000,     0.000,   1,   1,1.03130, -47.5152,   1
  153,'BUS153  ', 500.0000,1,     0.000,     0.000,   1,   1,1.05358, -48.7090,   1
  154,'BUS154  ', 230.0000,1,     0.000,   500.000,   1,   1,1.01230, -51.3765,   1
  155,'BUS155  ', 345.0000,1,     0.000,   -60.000,   1,   1,1.05668,  -7.9538,   1
  156,'BUS156  ', 345.0000,1,     0.000,     0.000,   1,   1,1.06289,  -8.0639,   1
  157,'BUS157  ', 230.0000,1,     0.000,     0.000,   1,   1,1.06188,  -8.5646,   1
  158,'BUS158  ', 345.0000,1,     0.000,  -220.000,   1,   1,1.04512,  -0.8583,   1
  159,'BUS159  ',  20.0000,2,     0.000,     0.000,   1,   1,1.05500,   3.8045,   1
  160,'BUS160  ', 345.0000,1,     0.000,     0.000,   1,   1,1.06896,  -8.0952,   1
  161,'BUS161  ', 230.0000,1,     0.000,     0.000,   1,   1,1.04672,  -3.7375,   1
  162,'BUS162  ',  20.0000,2,     0.000,     0.000,   1,   1,1.00000,  -0.8985,   1
  163,'BUS163  ', 345.0000,1,     0.000,   -18.000,   1,   1,1.04987,  -7.2178,   1
  164,'BUS164  ', 345.0000,1,     0.000,     0.000,   1,   1,1.05639,  -6.3575,   1
  165,'BUS165  ', 345.0000,1,     0.000,     0.000,   1,   1,1.04747,  -6.6825,   1
  166,'BUS166  ', 345.0000,1,     0.000,   -50.000,   1,   1,1.06241,  -6.4439,   1
  167,'BUS167  ', 345.0000,1,     0.000,     0.000,   1,   1,1.05450,  -8.6620,   1
  168,'BUS168  ', 500.0000,1,     0.000,     0.000,   1,   1,1.05806, -16.9110,   1
  169,'BUS169  ', 500.0000,1,     0.000,     0.000,   1,   1,1.02508, -31.0576,   1
  170,'BUS170  ', 500.0000,1,     0.000,     0.000,   1,   1,1.05907, -16.0138,   1
  171,'BUS171  ', 500.0000,1,     0.000,     0.000,   1,   1,1.02664, -31.0918,   1
  172,'BUS172  ', 500.0000,1,     0.000,     0.000,   1,   1,1.04281, -15.3974,   1
  173,'BUS173  ', 500.0000,1,     0.000,     0.000,   1,   1,1.04954, -34.2757,   1
  174,'BUS174  ', 500.0000,1,     0.000,     0.000,   1,   1,1.01172, -47.8895,   1
  175,'BUS175  ', 500.0000,1,     0.000,     0.000,   1,   1,1.06162, -49.0587,   1
  176,'BUS176  ', 500.0000,1,     0.000,     0.000,   1,   1,1.01122, -47.8851,   1
  177,'BUS177  ', 500.0000,1,     0.000,     0.000,   1,   1,1.06185, -49.0592,   1
  178,'BUS178  ', 500.0000,1,     0.000,     0.000,   1,   1,1.01019, -47.8673,   1
  179,'BUS179  ', 500.0000,1,     0.000,     0.000,   1,   1,1.06350, -49.0405,   1
  180,'BUS180  ', 500.0000,1,     0.000,  -220.000,   1,   1,1.05047,  -7.4763,   1
  181,'BUS181  ', 500.0000,1,     0.000,     0.000,   1,   1,1.03369,  -0.8024,   1
  182,'BUS182  ', 500.0000,1,     0.000,     0.000,   1,   1,1.01284,   8.8339,   1
  183,'BUS183  ', 500.0000,1,     0.000,   250.000,   1,   1,1.05096,  22.1696,   1
  184,'BUS184  ', 230.0000,1,     0.000,     0.000,   1,   1,1.05193,  21.3138,   1
  185,'BUS185  ', 230.0000,1,     0.000,     0.000,   1,   1,1.04040,  13.6395,   1
  186,'BUS186  ', 345.0000,1,     0.000,  -400.000,   1,   1,1.04930,  -5.8738,   1
  187,'BUS187  ', 230.0000,1,     0.000,     0.000,   1,   1,1.05204,  -6.5928,   1
  188,'BUS188  ', 230.0000,1,     0.000,     0.000,   1,   1,1.01378, -15.0613,   1
  189,'BUS189  ', 230.0000,1,     0.000,     0.000,   1,   1,1.05261,  -5.1877,   1
  190,'BUS190  ', 345.0000,1,     0.000,  -100.000,   1,   1,1.04866,  -4.4775,   1
  191,'BUS191  ', 345.0000,1,     0.000,     0.000,   1,   1,1.07635,  -1.6751,   1
  192,'BUS192  ', 345.0000,1,     0.000,     0.000,   1,   1,1.06306,  -9.5392,   1
  193,'BUS193  ', 230.0000,1,     0.000,     0.000,   1,   1,1.06501, -10.2899,   1
  194,'BUS194  ', 230.0000,1,     0.000,     0.000,   1,   1,1.06039, -22.5597,   1
  195,'BUS195  ', 345.0000,1,     0.000,     0.000,   1,   1,0.99180, -31.4112,   1
  196,'BUS196  ', 500.0000,1,     0.000,     0.000,   1,   1,1.00859,  -2.7933,   1
  197,'BUS197  ', 500.0000,1,     0.000,     0.000,   1,   1,1.03046,  -8.8075,   1
  198,'BUS198  ',  13.8000,2,     0.000,     0.000,   1,   1,1.00000,  50.2923,   1
  199,'BUS199  ',  26.0000,2,     0.000,     0.000,   1,   1,1.05000,  32.9077,   1
  200,'BUS200  ', 345.0000,1,     0.000,  -200.000,   1,   1,1.07792, -12.9252,   1
  201,'BUS201  ', 500.0000,1,     0.000,     0.000,   1,   1,1.05873, -11.6505,   1
...
